
.subckt sky130_fd_sc_hd__inv_1 A VGND VNB VPB VPWR Y
M0 VGND A Y VNB sky130_fd_pr__nfet_01v8 w=0.650000 l=0.150000
M1 VPWR A Y VPB sky130_fd_pr__pfet_01v8_hvt w=1.0 l=0.150000
.ends
